%%%%%%%%%%%%%%%%%%%%%%%%%%%%%%%%%%%%%%%%%%%%%%%%%%%%%%%%%%%%%%%%%%%%%%%%%%%%%%%%
%                                                                              %
% SU2 configuration file                                                       %
% Case description: Turbulent flow, ONERA M6, Newton-Krylov solver             %
% File Version 8.0.0 "Harrier"                                                 %
%                                                                              %
%%%%%%%%%%%%%%%%%%%%%%%%%%%%%%%%%%%%%%%%%%%%%%%%%%%%%%%%%%%%%%%%%%%%%%%%%%%%%%%%

SOLVER= RANS
KIND_TURB_MODEL= SA
MATH_PROBLEM= DIRECT
RESTART_SOL= NO

% ------------------------- NEWTON-KRYLOV PARAMETERS --------------------------%
%
NEWTON_KRYLOV= YES
LINEAR_SOLVER_ITER= 10
LINEAR_SOLVER_ERROR= 0.5

% For "n0" iterations or "r0" residual reduction, the normal quasi-Newton iterations
% are used. Then, they become the preconditioner for the NK iterations with "np" linear
% iterations or "tp" tolerance, with "np"=0 the linear preconditioner (e.g. ILU) is
% used directly (this may be enough for unsteady).
% The tolerance for NK iterations is initially relaxed by factor "ft", and reaches
% LINEAR_SOLVER_ERROR after "rf" residual reduction (additional to "r0").
% The Jacobian-free products are based on finite differences with step "e".
NEWTON_KRYLOV_IPARAM= (10, 0, 1)
NEWTON_KRYLOV_DPARAM= (1.0, 0.1, -6.0, 1e-5)

CFL_ADAPT= YES
CFL_NUMBER= 10
CFL_ADAPT_PARAM= ( 0.8, 1.1, 5, 50 )

REF_DIMENSIONALIZATION= FREESTREAM_VEL_EQ_MACH

TIME_DISCRE_FLOW= EULER_IMPLICIT
LINEAR_SOLVER_PREC= ILU

MGLEVEL= 0
LINEAR_SOLVER= FGMRES

% -------------------- COMPRESSIBLE FREE-STREAM DEFINITION --------------------%
%
MACH_NUMBER= 0.8395
AOA= 3.06
SIDESLIP_ANGLE= 0.0

FREESTREAM_TEMPERATURE= 288.15
REYNOLDS_NUMBER= 11.72E6
REYNOLDS_LENGTH= 0.64607

% ---- IDEAL GAS, POLYTROPIC, VAN DER WAALS AND PENG ROBINSON CONSTANTS -------%
%
FLUID_MODEL= STANDARD_AIR
GAMMA_VALUE= 1.4
GAS_CONSTANT= 287.058
ACENTRIC_FACTOR= 0.035

% --------------------------- VISCOSITY MODEL ---------------------------------%
%
VISCOSITY_MODEL= SUTHERLAND
MU_CONSTANT= 1.716E-5
MU_REF= 1.716E-5
MU_T_REF= 273.15
SUTHERLAND_CONSTANT= 110.4

% ---------------------- REFERENCE VALUE DEFINITION ---------------------------%
%
REF_ORIGIN_MOMENT_X = 0.25
REF_ORIGIN_MOMENT_Y = 0.00
REF_ORIGIN_MOMENT_Z = 0.00
REF_LENGTH= 0.64607
REF_AREA= 0

% -------------------- BOUNDARY CONDITION DEFINITION --------------------------%
%
MARKER_HEATFLUX= ( WING, 0.0 )
MARKER_FAR= ( FARFIELD )
MARKER_SYM= ( SYMMETRY )
MARKER_PLOTTING= ( WING )
MARKER_MONITORING= ( WING )

% -------------------- FLOW NUMERICAL METHOD DEFINITION -----------------------%
%
NUM_METHOD_GRAD= GREEN_GAUSS
CONV_NUM_METHOD_FLOW= JST
MUSCL_FLOW= NO
SLOPE_LIMITER_FLOW= VAN_ALBADA_EDGE

% -------------------- TURBULENT NUMERICAL METHOD DEFINITION ------------------%
%
CONV_NUM_METHOD_TURB= SCALAR_UPWIND
MUSCL_TURB= NO
TIME_DISCRE_TURB= EULER_IMPLICIT

% --------------------------- CONVERGENCE PARAMETERS --------------------------%
%
CONV_RESIDUAL_MINVAL= -12
CONV_STARTITER= 10
ITER= 2000

% ------------------------- INPUT/OUTPUT INFORMATION --------------------------%
%
MESH_FILENAME= mesh_ONERAM6_turb_hybrid_258969.su2
MESH_FORMAT= SU2
OUTPUT_FILES= (RESTART, PARAVIEW, SURFACE_PARAVIEW)
OUTPUT_WRT_FREQ= 500
SCREEN_OUTPUT = (INNER_ITER, WALL_TIME, RMS_RES, LIFT, DRAG, LINSOL_ITER, LINSOL_RESIDUAL, AVG_CFL)
HISTORY_OUTPUT= (ITER, RMS_RES, DRAG, LIFT, LINSOL_ITER, LINSOL_RESIDUAL, AVG_CFL)
